 CRYSTAL
 PRIMVEC
   -2.715299987    0.000000000    2.715299987
    0.000000000    2.715299987    2.715299987
   -2.715299987    2.715299987    0.000000000
 PRIMCOORD
           2           1
Si        0.000000000    0.000000000    0.000000000
Si       -1.357649994    1.357649994    1.357649994
BEGIN_BLOCK_DATAGRID_2D
2D_PWSCF
DATAGRID_2D_UNKNOWN
          40          40
  0.000000  0.000000  0.000000
  5.430600  5.430600  0.000000
  0.000000  0.000000  5.430600
  0.638442E-01  0.504275E-01  0.357416E-01  0.460226E-01  0.598414E-01  0.554980E-01
  0.446136E-01  0.354108E-01  0.290779E-01  0.256600E-01  0.249786E-01  0.270181E-01
  0.318696E-01  0.396921E-01  0.500153E-01  0.596174E-01  0.547091E-01  0.382127E-01
  0.405420E-01  0.599636E-01  0.599636E-01  0.405420E-01  0.382127E-01  0.547091E-01
  0.596174E-01  0.500153E-01  0.396921E-01  0.318696E-01  0.270181E-01  0.249786E-01
  0.256600E-01  0.290779E-01  0.354108E-01  0.446136E-01  0.554980E-01  0.598414E-01
  0.460226E-01  0.357416E-01  0.504275E-01  0.638442E-01  0.564171E-01  0.434731E-01
  0.297660E-01  0.397660E-01  0.521690E-01  0.472632E-01  0.367604E-01  0.281347E-01
  0.223818E-01  0.193647E-01  0.187720E-01  0.205546E-01  0.248959E-01  0.321138E-01
  0.419281E-01  0.514742E-01  0.477741E-01  0.323092E-01  0.341305E-01  0.526463E-01
  0.526463E-01  0.341305E-01  0.323092E-01  0.477741E-01  0.514742E-01  0.419281E-01
  0.321138E-01  0.248959E-01  0.205546E-01  0.187720E-01  0.193647E-01  0.223818E-01
  0.281347E-01  0.367604E-01  0.472632E-01  0.521690E-01  0.397660E-01  0.297660E-01
  0.434731E-01  0.564171E-01  0.416584E-01  0.337402E-01  0.279854E-01  0.387686E-01
  0.467283E-01  0.399443E-01  0.300276E-01  0.222295E-01  0.171699E-01  0.145681E-01
  0.140626E-01  0.155896E-01  0.193668E-01  0.257940E-01  0.348188E-01  0.445514E-01
  0.446704E-01  0.319847E-01  0.288491E-01  0.392718E-01  0.392718E-01  0.288491E-01
  0.319847E-01  0.446704E-01  0.445514E-01  0.348188E-01  0.257940E-01  0.193668E-01
  0.155896E-01  0.140626E-01  0.145681E-01  0.171699E-01  0.222295E-01  0.300276E-01
  0.399443E-01  0.467283E-01  0.387686E-01  0.279854E-01  0.337402E-01  0.416584E-01
  0.344709E-01  0.320209E-01  0.333185E-01  0.416597E-01  0.425328E-01  0.336559E-01
  0.244277E-01  0.175396E-01  0.132036E-01  0.110059E-01  0.105832E-01  0.118671E-01
  0.150740E-01  0.206529E-01  0.288011E-01  0.386113E-01  0.437873E-01  0.373647E-01
  0.314508E-01  0.336471E-01  0.336471E-01  0.314508E-01  0.373647E-01  0.437873E-01
  0.386113E-01  0.288011E-01  0.206529E-01  0.150740E-01  0.118671E-01  0.105832E-01
  0.110059E-01  0.132036E-01  0.175396E-01  0.244277E-01  0.336559E-01  0.425328E-01
  0.416597E-01  0.333185E-01  0.320209E-01  0.344709E-01  0.404758E-01  0.405524E-01
  0.427834E-01  0.442861E-01  0.381760E-01  0.282889E-01  0.198721E-01  0.138897E-01
  0.102265E-01  0.839071E-02  0.804023E-02  0.910997E-02  0.117962E-01  0.165665E-01
  0.238005E-01  0.332199E-01  0.422080E-01  0.441912E-01  0.413181E-01  0.404304E-01
  0.404304E-01  0.413181E-01  0.441912E-01  0.422080E-01  0.332199E-01  0.238005E-01
  0.165665E-01  0.117962E-01  0.910997E-02  0.804023E-02  0.839071E-02  0.102265E-01
  0.138897E-01  0.198721E-01  0.282889E-01  0.381760E-01  0.442861E-01  0.427834E-01
  0.405524E-01  0.404758E-01  0.512269E-01  0.507784E-01  0.488639E-01  0.429891E-01
  0.332249E-01  0.236697E-01  0.162026E-01  0.111004E-01  0.803833E-02  0.651345E-02
  0.622245E-02  0.711086E-02  0.934476E-02  0.133679E-01  0.196419E-01  0.282322E-01
  0.383400E-01  0.465694E-01  0.501244E-01  0.511160E-01  0.511160E-01  0.501244E-01
  0.465694E-01  0.383400E-01  0.282322E-01  0.196419E-01  0.133679E-01  0.934476E-02
  0.711086E-02  0.622245E-02  0.651345E-02  0.803833E-02  0.111004E-01  0.162026E-01
  0.236697E-01  0.332249E-01  0.429891E-01  0.488639E-01  0.507784E-01  0.512269E-01
  0.547874E-01  0.528743E-01  0.470526E-01  0.379773E-01  0.281280E-01  0.196368E-01
  0.132539E-01  0.899180E-02  0.645904E-02  0.520253E-02  0.496164E-02  0.569338E-02
  0.754009E-02  0.108775E-01  0.161658E-01  0.236461E-01  0.329737E-01  0.427991E-01
  0.504517E-01  0.543118E-01  0.543118E-01  0.504517E-01  0.427991E-01  0.329737E-01
  0.236461E-01  0.161658E-01  0.108775E-01  0.754009E-02  0.569338E-02  0.496164E-02
  0.520253E-02  0.645904E-02  0.899180E-02  0.132539E-01  0.196368E-01  0.281280E-01
  0.379773E-01  0.470526E-01  0.528743E-01  0.547874E-01  0.487690E-01  0.464390E-01
  0.401305E-01  0.317160E-01  0.232702E-01  0.161430E-01  0.108926E-01  0.741705E-02
  0.534519E-02  0.432105E-02  0.412391E-02  0.471972E-02  0.623210E-02  0.895185E-02
  0.132801E-01  0.194873E-01  0.273942E-01  0.360441E-01  0.436872E-01  0.481756E-01
  0.481756E-01  0.436872E-01  0.360441E-01  0.273942E-01  0.194873E-01  0.132801E-01
  0.895185E-02  0.623210E-02  0.471972E-02  0.412391E-02  0.432105E-02  0.534519E-02
  0.741705E-02  0.108926E-01  0.161430E-01  0.232702E-01  0.317160E-01  0.401305E-01
  0.464390E-01  0.487690E-01  0.393963E-01  0.374778E-01  0.323791E-01  0.256375E-01
  0.188734E-01  0.132065E-01  0.903414E-02  0.625947E-02  0.458596E-02  0.375994E-02
  0.360208E-02  0.408142E-02  0.530218E-02  0.749039E-02  0.109307E-01  0.158630E-01
  0.221714E-01  0.291055E-01  0.352416E-01  0.389049E-01  0.389049E-01  0.352416E-01
  0.291055E-01  0.221714E-01  0.158630E-01  0.109307E-01  0.749039E-02  0.530218E-02
  0.408142E-02  0.360208E-02  0.375994E-02  0.458596E-02  0.625947E-02  0.903414E-02
  0.132065E-01  0.188734E-01  0.256375E-01  0.323791E-01  0.374778E-01  0.393963E-01
  0.305939E-01  0.291603E-01  0.253314E-01  0.202495E-01  0.151373E-01  0.108198E-01
  0.761123E-02  0.543855E-02  0.411493E-02  0.345787E-02  0.333430E-02  0.371372E-02
  0.468136E-02  0.640839E-02  0.907411E-02  0.128490E-01  0.176331E-01  0.228649E-01
  0.274837E-01  0.302272E-01  0.302272E-01  0.274837E-01  0.228649E-01  0.176331E-01
  0.128490E-01  0.907411E-02  0.640839E-02  0.468136E-02  0.371372E-02  0.333430E-02
  0.345787E-02  0.411493E-02  0.543855E-02  0.761123E-02  0.108198E-01  0.151373E-01
  0.202495E-01  0.253314E-01  0.291603E-01  0.305939E-01  0.231918E-01  0.221775E-01
  0.194539E-01  0.158168E-01  0.121179E-01  0.895493E-02  0.655759E-02  0.490704E-02
  0.388701E-02  0.337733E-02  0.328022E-02  0.357605E-02  0.432557E-02  0.564569E-02
  0.765802E-02  0.104466E-01  0.139299E-01  0.176923E-01  0.209867E-01  0.229329E-01
  0.229329E-01  0.209867E-01  0.176923E-01  0.139299E-01  0.104466E-01  0.765802E-02
  0.564569E-02  0.432557E-02  0.357605E-02  0.328022E-02  0.337733E-02  0.388701E-02
  0.490704E-02  0.655759E-02  0.895493E-02  0.121179E-01  0.158168E-01  0.194539E-01
  0.221775E-01  0.231918E-01  0.173914E-01  0.167014E-01  0.148481E-01  0.123527E-01
  0.978436E-02  0.754924E-02  0.583053E-02  0.463474E-02  0.388429E-02  0.350654E-02
  0.343185E-02  0.365491E-02  0.420785E-02  0.517199E-02  0.662157E-02  0.860860E-02
  0.110472E-01  0.136428E-01  0.158921E-01  0.172151E-01  0.172151E-01  0.158921E-01
  0.136428E-01  0.110472E-01  0.860860E-02  0.662157E-02  0.517199E-02  0.420785E-02
  0.365491E-02  0.343185E-02  0.350654E-02  0.388429E-02  0.463474E-02  0.583053E-02
  0.754924E-02  0.978436E-02  0.123527E-01  0.148481E-01  0.167014E-01  0.173914E-01
  0.130295E-01  0.125807E-01  0.113748E-01  0.973849E-02  0.803861E-02  0.655244E-02
  0.540883E-02  0.461020E-02  0.411379E-02  0.386165E-02  0.381198E-02  0.396088E-02
  0.432771E-02  0.496854E-02  0.593575E-02  0.725697E-02  0.887624E-02  0.105863E-01
  0.120550E-01  0.129146E-01  0.129146E-01  0.120550E-01  0.105863E-01  0.887624E-02
  0.725697E-02  0.593575E-02  0.496854E-02  0.432771E-02  0.396088E-02  0.381198E-02
  0.386165E-02  0.411379E-02  0.461020E-02  0.540883E-02  0.655244E-02  0.803861E-02
  0.973849E-02  0.113748E-01  0.125807E-01  0.130295E-01  0.981931E-02  0.954171E-02
  0.880525E-02  0.781289E-02  0.679549E-02  0.592490E-02  0.527685E-02  0.485169E-02
  0.460764E-02  0.449522E-02  0.447332E-02  0.453838E-02  0.471028E-02  0.503821E-02
  0.557188E-02  0.633474E-02  0.729467E-02  0.832584E-02  0.921997E-02  0.974778E-02
  0.974778E-02  0.921997E-02  0.832584E-02  0.729467E-02  0.633474E-02  0.557188E-02
  0.503821E-02  0.471028E-02  0.453838E-02  0.447332E-02  0.449522E-02  0.460764E-02
  0.485169E-02  0.527685E-02  0.592490E-02  0.679549E-02  0.781289E-02  0.880525E-02
  0.954171E-02  0.981931E-02  0.748399E-02  0.733569E-02  0.695183E-02  0.645366E-02
  0.598210E-02  0.563015E-02  0.543936E-02  0.538866E-02  0.542662E-02  0.548426E-02
  0.549686E-02  0.545839E-02  0.540053E-02  0.539893E-02  0.551509E-02  0.578699E-02
  0.620742E-02  0.670787E-02  0.716644E-02  0.744559E-02  0.744559E-02  0.716644E-02
  0.670787E-02  0.620742E-02  0.578699E-02  0.551509E-02  0.539893E-02  0.540053E-02
  0.545839E-02  0.549686E-02  0.548426E-02  0.542662E-02  0.538866E-02  0.543936E-02
  0.563015E-02  0.598210E-02  0.645366E-02  0.695183E-02  0.733569E-02  0.748399E-02
  0.582638E-02  0.577983E-02  0.566229E-02  0.555460E-02  0.553368E-02  0.564946E-02
  0.591689E-02  0.628843E-02  0.667241E-02  0.694407E-02  0.700511E-02  0.682927E-02
  0.648698E-02  0.609380E-02  0.576630E-02  0.557214E-02  0.552937E-02  0.560221E-02
  0.572524E-02  0.581487E-02  0.581487E-02  0.572524E-02  0.560221E-02  0.552937E-02
  0.557214E-02  0.576630E-02  0.609380E-02  0.648698E-02  0.682927E-02  0.700511E-02
  0.694407E-02  0.667241E-02  0.628843E-02  0.591689E-02  0.564946E-02  0.553368E-02
  0.555460E-02  0.566229E-02  0.577983E-02  0.582638E-02  0.468904E-02  0.471704E-02
  0.481093E-02  0.502306E-02  0.540298E-02  0.598671E-02  0.676401E-02  0.764697E-02
  0.846868E-02  0.902283E-02  0.914592E-02  0.879079E-02  0.807849E-02  0.720110E-02
  0.635457E-02  0.566862E-02  0.518885E-02  0.489940E-02  0.475251E-02  0.469644E-02
  0.469644E-02  0.475251E-02  0.489940E-02  0.518885E-02  0.566862E-02  0.635457E-02
  0.720110E-02  0.807849E-02  0.879079E-02  0.914592E-02  0.902283E-02  0.846868E-02
  0.764697E-02  0.676401E-02  0.598671E-02  0.540298E-02  0.502306E-02  0.481093E-02
  0.471704E-02  0.468904E-02  0.394338E-02  0.402927E-02  0.429733E-02  0.479340E-02
  0.557221E-02  0.666601E-02  0.805171E-02  0.957990E-02  0.109746E-01  0.119030E-01
  0.121055E-01  0.115164E-01  0.103145E-01  0.881306E-02  0.732813E-02  0.607902E-02
  0.514473E-02  0.451330E-02  0.413821E-02  0.396494E-02  0.396494E-02  0.413821E-02
  0.451330E-02  0.514473E-02  0.607902E-02  0.732813E-02  0.881306E-02  0.103145E-01
  0.115164E-01  0.121055E-01  0.119030E-01  0.109746E-01  0.957990E-02  0.805171E-02
  0.666601E-02  0.557221E-02  0.479340E-02  0.429733E-02  0.402927E-02  0.394338E-02
  0.349505E-02  0.363203E-02  0.405542E-02  0.483756E-02  0.604269E-02  0.773136E-02
  0.986292E-02  0.122153E-01  0.143753E-01  0.158212E-01  0.161359E-01  0.152188E-01
  0.133514E-01  0.110333E-01  0.875085E-02  0.682553E-02  0.538255E-02  0.439770E-02
  0.380386E-02  0.352970E-02  0.352970E-02  0.380386E-02  0.439770E-02  0.538255E-02
  0.682553E-02  0.875085E-02  0.110333E-01  0.133514E-01  0.152188E-01  0.161359E-01
  0.158212E-01  0.143753E-01  0.122153E-01  0.986292E-02  0.773136E-02  0.604269E-02
  0.483756E-02  0.405542E-02  0.363203E-02  0.349505E-02  0.328740E-02  0.347087E-02
  0.405438E-02  0.513969E-02  0.683332E-02  0.922887E-02  0.122919E-01  0.157279E-01
  0.189192E-01  0.210688E-01  0.215357E-01  0.201730E-01  0.174024E-01  0.139956E-01
  0.106869E-01  0.794167E-02  0.590279E-02  0.452809E-02  0.370683E-02  0.333307E-02
  0.333307E-02  0.370683E-02  0.452809E-02  0.590279E-02  0.794167E-02  0.106869E-01
  0.139956E-01  0.174024E-01  0.201730E-01  0.215357E-01  0.210688E-01  0.189192E-01
  0.157279E-01  0.122919E-01  0.922887E-02  0.683332E-02  0.513969E-02  0.405438E-02
  0.347087E-02  0.328740E-02  0.328740E-02  0.352200E-02  0.428189E-02  0.570890E-02
  0.796737E-02  0.112179E-01  0.154527E-01  0.202651E-01  0.247818E-01  0.278447E-01
  0.285128E-01  0.265663E-01  0.226302E-01  0.178313E-01  0.132265E-01  0.946145E-02
  0.672427E-02  0.490083E-02  0.382946E-02  0.334484E-02  0.334484E-02  0.382946E-02
  0.490083E-02  0.672427E-02  0.946145E-02  0.132265E-01  0.178313E-01  0.226302E-01
  0.265663E-01  0.285128E-01  0.278447E-01  0.247818E-01  0.202651E-01  0.154527E-01
  0.112179E-01  0.796737E-02  0.570890E-02  0.428189E-02  0.352200E-02  0.328740E-02
  0.349505E-02  0.379410E-02  0.475524E-02  0.657230E-02  0.948786E-02  0.137621E-01
  0.193907E-01  0.258483E-01  0.319304E-01  0.360685E-01  0.369752E-01  0.343384E-01
  0.290317E-01  0.225769E-01  0.164244E-01  0.114454E-01  0.787517E-02  0.554249E-02
  0.418191E-02  0.356909E-02  0.356909E-02  0.418191E-02  0.554249E-02  0.787517E-02
  0.114454E-01  0.164244E-01  0.225769E-01  0.290317E-01  0.343384E-01  0.369752E-01
  0.360685E-01  0.319304E-01  0.258483E-01  0.193907E-01  0.137621E-01  0.948786E-02
  0.657230E-02  0.475524E-02  0.379410E-02  0.349505E-02  0.394338E-02  0.431795E-02
  0.551347E-02  0.777477E-02  0.114594E-01  0.168863E-01  0.240475E-01  0.322278E-01
  0.399551E-01  0.452094E-01  0.463529E-01  0.430174E-01  0.362676E-01  0.280859E-01
  0.202753E-01  0.139437E-01  0.941429E-02  0.649219E-02  0.479957E-02  0.403707E-02
  0.403707E-02  0.479957E-02  0.649219E-02  0.941429E-02  0.139437E-01  0.202753E-01
  0.280859E-01  0.362676E-01  0.430174E-01  0.463529E-01  0.452094E-01  0.399551E-01
  0.322278E-01  0.240475E-01  0.168863E-01  0.114594E-01  0.777477E-02  0.551347E-02
  0.431795E-02  0.394338E-02  0.468904E-02  0.514966E-02  0.661687E-02  0.939500E-02
  0.139360E-01  0.205754E-01  0.291886E-01  0.388754E-01  0.475097E-01  0.527861E-01
  0.538590E-01  0.506530E-01  0.434957E-01  0.339975E-01  0.246711E-01  0.169844E-01
  0.114186E-01  0.781514E-02  0.574302E-02  0.480362E-02  0.480362E-02  0.574302E-02
  0.781514E-02  0.114186E-01  0.169844E-01  0.246711E-01  0.339975E-01  0.434957E-01
  0.506530E-01  0.538590E-01  0.527861E-01  0.475097E-01  0.388754E-01  0.291886E-01
  0.205754E-01  0.139360E-01  0.939500E-02  0.661687E-02  0.514966E-02  0.468904E-02
  0.582638E-02  0.638555E-02  0.816656E-02  0.115356E-01  0.169850E-01  0.247668E-01
  0.345033E-01  0.441884E-01  0.502540E-01  0.526643E-01  0.530733E-01  0.517849E-01
  0.477868E-01  0.395988E-01  0.294472E-01  0.205926E-01  0.139735E-01  0.961948E-02
  0.710861E-02  0.596415E-02  0.596415E-02  0.710861E-02  0.961948E-02  0.139735E-01
  0.205926E-01  0.294472E-01  0.395988E-01  0.477868E-01  0.517849E-01  0.530733E-01
  0.526643E-01  0.502540E-01  0.441884E-01  0.345033E-01  0.247668E-01  0.169850E-01
  0.115356E-01  0.816656E-02  0.638555E-02  0.582638E-02  0.748399E-02  0.815798E-02
  0.103047E-01  0.143314E-01  0.207093E-01  0.294526E-01  0.393531E-01  0.451204E-01
  0.444661E-01  0.432969E-01  0.432458E-01  0.436624E-01  0.452708E-01  0.431643E-01
  0.344705E-01  0.248138E-01  0.172065E-01  0.120494E-01  0.903019E-02  0.764969E-02
  0.764969E-02  0.903019E-02  0.120494E-01  0.172065E-01  0.248138E-01  0.344705E-01
  0.431643E-01  0.452708E-01  0.436624E-01  0.432458E-01  0.432969E-01  0.444661E-01
  0.451204E-01  0.393531E-01  0.294526E-01  0.207093E-01  0.143314E-01  0.103047E-01
  0.815798E-02  0.748399E-02  0.981931E-02  0.106304E-01  0.132025E-01  0.179559E-01
  0.252599E-01  0.347392E-01  0.428914E-01  0.410314E-01  0.342615E-01  0.338340E-01
  0.347340E-01  0.332220E-01  0.372716E-01  0.434241E-01  0.395374E-01  0.297943E-01
  0.212877E-01  0.152759E-01  0.116755E-01  0.100198E-01  0.100198E-01  0.116755E-01
  0.152759E-01  0.212877E-01  0.297943E-01  0.395374E-01  0.434241E-01  0.372716E-01
  0.332220E-01  0.347340E-01  0.338340E-01  0.342615E-01  0.410314E-01  0.428914E-01
  0.347392E-01  0.252599E-01  0.179559E-01  0.132025E-01  0.106304E-01  0.981931E-02
  0.130295E-01  0.140006E-01  0.170526E-01  0.225903E-01  0.308055E-01  0.407657E-01
  0.455340E-01  0.360126E-01  0.280793E-01  0.346046E-01  0.381497E-01  0.301208E-01
  0.303240E-01  0.421697E-01  0.447046E-01  0.357224E-01  0.263857E-01  0.194855E-01
  0.152430E-01  0.132714E-01  0.132714E-01  0.152430E-01  0.194855E-01  0.263857E-01
  0.357224E-01  0.447046E-01  0.421697E-01  0.303240E-01  0.301208E-01  0.381497E-01
  0.346046E-01  0.280793E-01  0.360126E-01  0.455340E-01  0.407657E-01  0.308055E-01
  0.225903E-01  0.170526E-01  0.140006E-01  0.130295E-01  0.173914E-01  0.185334E-01
  0.220791E-01  0.283862E-01  0.374567E-01  0.477383E-01  0.492633E-01  0.350099E-01
  0.297663E-01  0.454279E-01  0.519189E-01  0.362649E-01  0.294303E-01  0.431005E-01
  0.506886E-01  0.427151E-01  0.326191E-01  0.248682E-01  0.199831E-01  0.176772E-01
  0.176772E-01  0.199831E-01  0.248682E-01  0.326191E-01  0.427151E-01  0.506886E-01
  0.431005E-01  0.294303E-01  0.362649E-01  0.519189E-01  0.454279E-01  0.297663E-01
  0.350099E-01  0.492633E-01  0.477383E-01  0.374567E-01  0.283862E-01  0.220791E-01
  0.185334E-01  0.173914E-01  0.231918E-01  0.245094E-01  0.285283E-01  0.354817E-01
  0.451871E-01  0.557492E-01  0.558179E-01  0.397564E-01  0.357948E-01  0.548556E-01
  0.622979E-01  0.440317E-01  0.343469E-01  0.485234E-01  0.582432E-01  0.506918E-01
  0.400461E-01  0.316282E-01  0.261650E-01  0.235226E-01  0.235226E-01  0.261650E-01
  0.316282E-01  0.400461E-01  0.506918E-01  0.582432E-01  0.485234E-01  0.343469E-01
  0.440317E-01  0.622979E-01  0.548556E-01  0.357948E-01  0.397564E-01  0.558179E-01
  0.557492E-01  0.451871E-01  0.354817E-01  0.285283E-01  0.245094E-01  0.231918E-01
  0.305939E-01  0.320880E-01  0.365166E-01  0.438748E-01  0.537790E-01  0.644010E-01
  0.650453E-01  0.488172E-01  0.408123E-01  0.532305E-01  0.587167E-01  0.456398E-01
  0.419801E-01  0.579735E-01  0.671065E-01  0.592968E-01  0.485720E-01  0.398343E-01
  0.339341E-01  0.309710E-01  0.309710E-01  0.339341E-01  0.398343E-01  0.485720E-01
  0.592968E-01  0.671065E-01  0.579735E-01  0.419801E-01  0.456398E-01  0.587167E-01
  0.532305E-01  0.408123E-01  0.488172E-01  0.650453E-01  0.644010E-01  0.537790E-01
  0.438748E-01  0.365166E-01  0.320880E-01  0.305939E-01  0.393963E-01  0.410867E-01
  0.458668E-01  0.532996E-01  0.627316E-01  0.726940E-01  0.749222E-01  0.598397E-01
  0.444122E-01  0.434360E-01  0.449422E-01  0.424093E-01  0.506154E-01  0.690565E-01
  0.758005E-01  0.678393E-01  0.578324E-01  0.492809E-01  0.431174E-01  0.398265E-01
  0.398265E-01  0.431174E-01  0.492809E-01  0.578324E-01  0.678393E-01  0.758005E-01
  0.690565E-01  0.506154E-01  0.424093E-01  0.449422E-01  0.434360E-01  0.444122E-01
  0.598397E-01  0.749222E-01  0.726940E-01  0.627316E-01  0.532996E-01  0.458668E-01
  0.410867E-01  0.393963E-01  0.487690E-01  0.508209E-01  0.560334E-01  0.631342E-01
  0.712970E-01  0.793938E-01  0.826211E-01  0.705348E-01  0.502239E-01  0.374898E-01
  0.352450E-01  0.424071E-01  0.602264E-01  0.786403E-01  0.823549E-01  0.754427E-01
  0.671480E-01  0.593984E-01  0.531292E-01  0.493027E-01  0.493027E-01  0.531292E-01
  0.593984E-01  0.671480E-01  0.754427E-01  0.823549E-01  0.786403E-01  0.602264E-01
  0.424071E-01  0.352450E-01  0.374898E-01  0.502239E-01  0.705348E-01  0.826211E-01
  0.793938E-01  0.712970E-01  0.631342E-01  0.560334E-01  0.508209E-01  0.487690E-01
  0.547874E-01  0.581762E-01  0.654794E-01  0.725347E-01  0.785702E-01  0.836063E-01
  0.858646E-01  0.779195E-01  0.591253E-01  0.424031E-01  0.385325E-01  0.496322E-01
  0.692108E-01  0.836352E-01  0.854194E-01  0.812469E-01  0.756506E-01  0.691607E-01
  0.616608E-01  0.556913E-01  0.556913E-01  0.616608E-01  0.691607E-01  0.756506E-01
  0.812469E-01  0.854194E-01  0.836352E-01  0.692108E-01  0.496322E-01  0.385325E-01
  0.424031E-01  0.591253E-01  0.779195E-01  0.858646E-01  0.836063E-01  0.785702E-01
  0.725347E-01  0.654794E-01  0.581762E-01  0.547874E-01  0.512269E-01  0.571934E-01
  0.699222E-01  0.797664E-01  0.837496E-01  0.849402E-01  0.841818E-01  0.788320E-01
  0.660647E-01  0.526710E-01  0.492792E-01  0.587082E-01  0.731977E-01  0.824033E-01
  0.848598E-01  0.845715E-01  0.823045E-01  0.756378E-01  0.633530E-01  0.528113E-01
  0.528113E-01  0.633530E-01  0.756378E-01  0.823045E-01  0.845715E-01  0.848598E-01
  0.824033E-01  0.731977E-01  0.587082E-01  0.492792E-01  0.526710E-01  0.660647E-01
  0.788320E-01  0.841818E-01  0.849402E-01  0.837496E-01  0.797664E-01  0.699222E-01
  0.571934E-01  0.512269E-01  0.404758E-01  0.481402E-01  0.661661E-01  0.817786E-01
  0.859459E-01  0.833235E-01  0.788517E-01  0.730318E-01  0.651172E-01  0.572539E-01
  0.552066E-01  0.608317E-01  0.693341E-01  0.761494E-01  0.812508E-01  0.849986E-01
  0.852490E-01  0.751410E-01  0.565450E-01  0.424701E-01  0.424701E-01  0.565450E-01
  0.751410E-01  0.852490E-01  0.849986E-01  0.812508E-01  0.761494E-01  0.693341E-01
  0.608317E-01  0.552066E-01  0.572539E-01  0.651172E-01  0.730318E-01  0.788517E-01
  0.833235E-01  0.859459E-01  0.817786E-01  0.661661E-01  0.481402E-01  0.404758E-01
  0.344709E-01  0.402673E-01  0.573390E-01  0.770676E-01  0.840976E-01  0.789463E-01
  0.713279E-01  0.637262E-01  0.570287E-01  0.521599E-01  0.510069E-01  0.542628E-01
  0.602266E-01  0.674570E-01  0.751973E-01  0.822709E-01  0.827069E-01  0.679132E-01
  0.476098E-01  0.358967E-01  0.358967E-01  0.476098E-01  0.679132E-01  0.827069E-01
  0.822709E-01  0.751973E-01  0.674570E-01  0.602266E-01  0.542628E-01  0.510069E-01
  0.521599E-01  0.570287E-01  0.637262E-01  0.713279E-01  0.789463E-01  0.840976E-01
  0.770676E-01  0.573390E-01  0.402673E-01  0.344709E-01  0.416584E-01  0.411761E-01
  0.487938E-01  0.674535E-01  0.780155E-01  0.722930E-01  0.625368E-01  0.536979E-01
  0.468877E-01  0.427499E-01  0.418669E-01  0.444498E-01  0.499939E-01  0.579208E-01
  0.673931E-01  0.764580E-01  0.750234E-01  0.576447E-01  0.431838E-01  0.413193E-01
  0.413193E-01  0.431838E-01  0.576447E-01  0.750234E-01  0.764580E-01  0.673931E-01
  0.579208E-01  0.499939E-01  0.444498E-01  0.418669E-01  0.427499E-01  0.468877E-01
  0.536979E-01  0.625368E-01  0.722930E-01  0.780155E-01  0.674535E-01  0.487938E-01
  0.411761E-01  0.416584E-01  0.564171E-01  0.479915E-01  0.421292E-01  0.561179E-01
  0.691338E-01  0.641436E-01  0.533717E-01  0.440397E-01  0.373382E-01  0.335532E-01
  0.327791E-01  0.350764E-01  0.403317E-01  0.484245E-01  0.587208E-01  0.684041E-01
  0.646481E-01  0.472721E-01  0.427659E-01  0.538959E-01  0.538959E-01  0.427659E-01
  0.472721E-01  0.646481E-01  0.684041E-01  0.587208E-01  0.484245E-01  0.403317E-01
  0.350764E-01  0.327791E-01  0.335532E-01  0.373382E-01  0.440397E-01  0.533717E-01
  0.641436E-01  0.691338E-01  0.561179E-01  0.421292E-01  0.479915E-01  0.564171E-01
  0.638442E-01  0.504275E-01  0.357416E-01  0.460226E-01  0.598414E-01  0.554980E-01
  0.446136E-01  0.354108E-01  0.290779E-01  0.256600E-01  0.249786E-01  0.270181E-01
  0.318696E-01  0.396921E-01  0.500153E-01  0.596174E-01  0.547091E-01  0.382127E-01
  0.405420E-01  0.599636E-01  0.599636E-01  0.405420E-01  0.382127E-01  0.547091E-01
  0.596174E-01  0.500153E-01  0.396921E-01  0.318696E-01  0.270181E-01  0.249786E-01
  0.256600E-01  0.290779E-01  0.354108E-01  0.446136E-01  0.554980E-01  0.598414E-01
  0.460226E-01  0.357416E-01  0.504275E-01  0.638442E-01
END_DATAGRID_2D
END_BLOCK_DATAGRID_2D
